Circuit: * Z:\home\gabriel\Escritorio\INSTITUTO TECNOLÓGICO DE MORELIA\SEPTIMO SEMESTRE\CONTROL I\PRACTICA 2\Draft7.asc


Date: Fri Nov 24 02:18:35 2017
Total elapsed time: 0.060 seconds.

tnom = 27
temp = 27
method = trap
totiter = 0
traniter = 0
tranpoints = 0
accept = 0
rejected = 0
matrix size = 10
fillins = 0
solver = Normal

